Input Parameters:
   integrator                     = md
   tinit                          = 0
   dt                             = 0.002
   nsteps                         = 5000000
   init-step                      = 0
   simulation-part                = 1
   comm-mode                      = Linear
   nstcomm                        = 1000
   bd-fric                        = 0
   ld-seed                        = -1377964033
   emtol                          = 10
   emstep                         = 0.01
   niter                          = 20
   fcstep                         = 0
   nstcgsteep                     = 1000
   nbfgscorr                      = 10
   rtpi                           = 0.05
   nstxout                        = 0
   nstvout                        = 0
   nstfout                        = 0
   nstlog                         = 5000
   nstcalcenergy                  = 100
   nstenergy                      = 5000
   nstxout-compressed             = 500
   compressed-x-precision         = 1000
   cutoff-scheme                  = Verlet
   nstlist                        = 10
   pbc                            = xyz
   periodic-molecules             = false
   verlet-buffer-tolerance        = 0.005
   rlist                          = 1.034
   coulombtype                    = Cut-off
   coulomb-modifier               = Potential-shift
   rcoulomb-switch                = 0
   rcoulomb                       = 1
   epsilon-r                      = 1
   epsilon-rf                     = inf
   vdw-type                       = Cut-off
   vdw-modifier                   = Potential-shift
   rvdw-switch                    = 0
   rvdw                           = 1
   DispCorr                       = No
   table-extension                = 1
   fourierspacing                 = 0.12
   fourier-nx                     = 0
   fourier-ny                     = 0
   fourier-nz                     = 0
   pme-order                      = 4
   ewald-rtol                     = 1e-05
   ewald-rtol-lj                  = 0.001
   lj-pme-comb-rule               = Geometric
   ewald-geometry                 = 0
   epsilon-surface                = 0
   tcoupl                         = V-rescale
   nsttcouple                     = 10
   nh-chain-length                = 0
   print-nose-hoover-chain-variables = false
   pcoupl                         = No
   pcoupltype                     = Isotropic
   nstpcouple                     = -1
   tau-p                          = 1
   compressibility (3x3):
      compressibility[    0]={ 0.00000e+00,  0.00000e+00,  0.00000e+00}
      compressibility[    1]={ 0.00000e+00,  0.00000e+00,  0.00000e+00}
      compressibility[    2]={ 0.00000e+00,  0.00000e+00,  0.00000e+00}
   ref-p (3x3):
      ref-p[    0]={ 0.00000e+00,  0.00000e+00,  0.00000e+00}
      ref-p[    1]={ 0.00000e+00,  0.00000e+00,  0.00000e+00}
      ref-p[    2]={ 0.00000e+00,  0.00000e+00,  0.00000e+00}
   refcoord-scaling               = No
   posres-com (3):
      posres-com[0]= 0.00000e+00
      posres-com[1]= 0.00000e+00
      posres-com[2]= 0.00000e+00
   posres-comB (3):
      posres-comB[0]= 0.00000e+00
      posres-comB[1]= 0.00000e+00
      posres-comB[2]= 0.00000e+00
   QMMM                           = false
   QMconstraints                  = 0
   QMMMscheme                     = 0
   MMChargeScaleFactor            = 1
qm-opts:
   ngQM                           = 0
   constraint-algorithm           = Lincs
   continuation                   = false
   Shake-SOR                      = false
   shake-tol                      = 0.0001
   lincs-order                    = 4
   lincs-iter                     = 4
   lincs-warnangle                = 30
   nwall                          = 0
   wall-type                      = 9-3
   wall-r-linpot                  = -1
   wall-atomtype[0]               = -1
   wall-atomtype[1]               = -1
   wall-density[0]                = 0
   wall-density[1]                = 0
   wall-ewald-zfac                = 3
   pull                           = false
   awh                            = false
   rotation                       = false
   interactiveMD                  = false
   disre                          = No
   disre-weighting                = Conservative
   disre-mixed                    = false
   dr-fc                          = 1000
   dr-tau                         = 0
   nstdisreout                    = 100
   orire-fc                       = 0
   orire-tau                      = 0
   nstorireout                    = 100
   free-energy                    = no
   cos-acceleration               = 0
   deform (3x3):
      deform[    0]={ 0.00000e+00,  0.00000e+00,  0.00000e+00}
      deform[    1]={ 0.00000e+00,  0.00000e+00,  0.00000e+00}
      deform[    2]={ 0.00000e+00,  0.00000e+00,  0.00000e+00}
   simulated-tempering            = false
   swapcoords                     = no
   userint1                       = 0
   userint2                       = 0
   userint3                       = 0
   userint4                       = 0
   userreal1                      = 0
   userreal2                      = 0
   userreal3                      = 0
   userreal4                      = 0
   applied-forces:
     electric-field:
       x:
         E0                       = 0
         omega                    = 0
         t0                       = 0
         sigma                    = 0
       y:
         E0                       = 0
         omega                    = 0
         t0                       = 0
         sigma                    = 0
       z:
         E0                       = 0
         omega                    = 0
         t0                       = 0
         sigma                    = 0
     density-guided-simulation:
       active                     = false
       group                      = protein
       similarity-measure         = inner-product
       atom-spreading-weight      = unity
       force-constant             = 1e+09
       gaussian-transform-spreading-width = 0.2
       gaussian-transform-spreading-range-in-multiples-of-width = 4
       reference-density-filename = reference.mrc
       nst                        = 1
       normalize-densities        = true
       adaptive-force-scaling     = false
       adaptive-force-scaling-time-constant = 4
grpopts:
   nrdf:          51
   ref-t:         300
   tau-t:         0.1
annealing:          No
annealing-npoints:           0
   acc:	           0           0           0
   nfreeze:           N           N           N
   energygrp-flags[  0]: 0

The -nsteps functionality is deprecated, and may be removed in a future version. Consider using gmx convert-tpr -nsteps or changing the appropriate .mdp file field.

Overriding nsteps with value passed on the command line: 1000000 steps, 2e+03 ps
Changing nstlist from 10 to 100, rlist from 1.034 to 1.309

1 GPU selected for this run.
Mapping of GPU IDs to the 1 GPU task in the 1 rank on this node:
  PP:1
PP tasks will do (non-perturbed) short-ranged interactions on the GPU
PP task will update and constrain coordinates on the CPU
Using 1 MPI process
Using 2 OpenMP threads

Overriding thread affinity set outside gmx mdrun

Applying core pinning offset 4
Pinning threads with a user-specified logical core stride of 1
System total charge: -0.000
Potential shift: LJ r^-12: -1.000e+00 r^-6: -1.000e+00, Coulomb -1e+00
Generated table with 1154 data points for 1-4 COUL.
Tabscale = 500 points/nm
Generated table with 1154 data points for 1-4 LJ6.
Tabscale = 500 points/nm
Generated table with 1154 data points for 1-4 LJ12.
Tabscale = 500 points/nm

Using GPU 8x8 nonbonded short-range kernels

Using a dual 8x8 pair-list setup updated with dynamic, rolling pruning:
  outer list: updated every 100 steps, buffer 0.309 nm, rlist 1.309 nm
  inner list: updated every   4 steps, buffer 0.011 nm, rlist 1.011 nm
At tolerance 0.005 kJ/mol/ps per atom, equivalent classical 1x1 list would be:
  outer list: updated every 100 steps, buffer 0.390 nm, rlist 1.390 nm
  inner list: updated every   4 steps, buffer 0.018 nm, rlist 1.018 nm

Using Lorentz-Berthelot Lennard-Jones combination rule

Removing pbc first time

Initializing LINear Constraint Solver

The number of constraints is 12

There are: 22 Atoms

Constraining the starting coordinates (step 0)

Constraining the coordinates at t0-dt (step 0)
Center of mass motion removal mode is Linear
We have the following groups for center of mass motion removal:
  0:  rest
RMS relative constraint deviation after constraining: 5.05e-07
Initial temperature: 291.816 K

PLUMED: PLUMED is starting
PLUMED: Version: 2.9.0-dev (git: a42f79bef) compiled on Mar 16 2022 at 19:23:46
PLUMED: Please cite these papers when using PLUMED [1][2]
PLUMED: For further information see the PLUMED web page at http://www.plumed.org
PLUMED: Root: /home/npedrani@iit.local/programs/plumed2-pytorch/
PLUMED: For installed feature, see /home/npedrani@iit.local/programs/plumed2-pytorch//src/config/config.txt
PLUMED: Molecular dynamics engine: gromacs
PLUMED: Precision of reals: 4
PLUMED: Running over 1 node
PLUMED: Number of threads: 2
PLUMED: Cache line size: 512
PLUMED: Number of atoms: 22
PLUMED: File suffix:
PLUMED: FILE: plumed.dat
PLUMED: Action MOLINFO
PLUMED:   with label @0
PLUMED:   pdb file named input.ala2.pdb contains 1 chains
PLUMED:   chain named   contains residues 1 to 3 and atoms 1 to 22
PLUMED: Action TORSION
PLUMED:   with label phi
PLUMED:   between atoms 5 7 9 15
PLUMED:   using periodic boundary conditions
PLUMED: Action TORSION
PLUMED:   with label psi
PLUMED:   between atoms 7 9 15 17
PLUMED:   using periodic boundary conditions
PLUMED: Action ENERGY
PLUMED:   with label ene
PLUMED:   Bibliography [3][4]
PLUMED: Action INCLUDE
PLUMED:   with label @4
PLUMED: FILE: plumed_descriptors.data
PLUMED: Action DISTANCE
PLUMED:   with label d1
PLUMED:   between atoms 2 5
PLUMED:   using periodic boundary conditions
PLUMED: Action DISTANCE
PLUMED:   with label d2
PLUMED:   between atoms 2 6
PLUMED:   using periodic boundary conditions
PLUMED: Action DISTANCE
PLUMED:   with label d3
PLUMED:   between atoms 2 7
PLUMED:   using periodic boundary conditions
PLUMED: Action DISTANCE
PLUMED:   with label d4
PLUMED:   between atoms 2 9
PLUMED:   using periodic boundary conditions
PLUMED: Action DISTANCE
PLUMED:   with label d5
PLUMED:   between atoms 2 11
PLUMED:   using periodic boundary conditions
PLUMED: Action DISTANCE
PLUMED:   with label d6
PLUMED:   between atoms 2 15
PLUMED:   using periodic boundary conditions
PLUMED: Action DISTANCE
PLUMED:   with label d7
PLUMED:   between atoms 2 16
PLUMED:   using periodic boundary conditions
PLUMED: Action DISTANCE
PLUMED:   with label d8
PLUMED:   between atoms 2 17
PLUMED:   using periodic boundary conditions
PLUMED: Action DISTANCE
PLUMED:   with label d9
PLUMED:   between atoms 2 19
PLUMED:   using periodic boundary conditions
PLUMED: Action DISTANCE
PLUMED:   with label d10
PLUMED:   between atoms 5 6
PLUMED:   using periodic boundary conditions
PLUMED: Action DISTANCE
PLUMED:   with label d11
PLUMED:   between atoms 5 7
PLUMED:   using periodic boundary conditions
PLUMED: Action DISTANCE
PLUMED:   with label d12
PLUMED:   between atoms 5 9
PLUMED:   using periodic boundary conditions
PLUMED: Action DISTANCE
PLUMED:   with label d13
PLUMED:   between atoms 5 11
PLUMED:   using periodic boundary conditions
PLUMED: Action DISTANCE
PLUMED:   with label d14
PLUMED:   between atoms 5 15
PLUMED:   using periodic boundary conditions
PLUMED: Action DISTANCE
PLUMED:   with label d15
PLUMED:   between atoms 5 16
PLUMED:   using periodic boundary conditions
PLUMED: Action DISTANCE
PLUMED:   with label d16
PLUMED:   between atoms 5 17
PLUMED:   using periodic boundary conditions
PLUMED: Action DISTANCE
PLUMED:   with label d17
PLUMED:   between atoms 5 19
PLUMED:   using periodic boundary conditions
PLUMED: Action DISTANCE
PLUMED:   with label d18
PLUMED:   between atoms 6 7
PLUMED:   using periodic boundary conditions
PLUMED: Action DISTANCE
PLUMED:   with label d19
PLUMED:   between atoms 6 9
PLUMED:   using periodic boundary conditions
PLUMED: Action DISTANCE
PLUMED:   with label d20
PLUMED:   between atoms 6 11
PLUMED:   using periodic boundary conditions
PLUMED: Action DISTANCE
PLUMED:   with label d21
PLUMED:   between atoms 6 15
PLUMED:   using periodic boundary conditions
PLUMED: Action DISTANCE
PLUMED:   with label d22
PLUMED:   between atoms 6 16
PLUMED:   using periodic boundary conditions
PLUMED: Action DISTANCE
PLUMED:   with label d23
PLUMED:   between atoms 6 17
PLUMED:   using periodic boundary conditions
PLUMED: Action DISTANCE
PLUMED:   with label d24
PLUMED:   between atoms 6 19
PLUMED:   using periodic boundary conditions
PLUMED: Action DISTANCE
PLUMED:   with label d25
PLUMED:   between atoms 7 9
PLUMED:   using periodic boundary conditions
PLUMED: Action DISTANCE
PLUMED:   with label d26
PLUMED:   between atoms 7 11
PLUMED:   using periodic boundary conditions
PLUMED: Action DISTANCE
PLUMED:   with label d27
PLUMED:   between atoms 7 15
PLUMED:   using periodic boundary conditions
PLUMED: Action DISTANCE
PLUMED:   with label d28
PLUMED:   between atoms 7 16
PLUMED:   using periodic boundary conditions
PLUMED: Action DISTANCE
PLUMED:   with label d29
PLUMED:   between atoms 7 17
PLUMED:   using periodic boundary conditions
PLUMED: Action DISTANCE
PLUMED:   with label d30
PLUMED:   between atoms 7 19
PLUMED:   using periodic boundary conditions
PLUMED: Action DISTANCE
PLUMED:   with label d31
PLUMED:   between atoms 9 11
PLUMED:   using periodic boundary conditions
PLUMED: Action DISTANCE
PLUMED:   with label d32
PLUMED:   between atoms 9 15
PLUMED:   using periodic boundary conditions
PLUMED: Action DISTANCE
PLUMED:   with label d33
PLUMED:   between atoms 9 16
PLUMED:   using periodic boundary conditions
PLUMED: Action DISTANCE
PLUMED:   with label d34
PLUMED:   between atoms 9 17
PLUMED:   using periodic boundary conditions
PLUMED: Action DISTANCE
PLUMED:   with label d35
PLUMED:   between atoms 9 19
PLUMED:   using periodic boundary conditions
PLUMED: Action DISTANCE
PLUMED:   with label d36
PLUMED:   between atoms 11 15
PLUMED:   using periodic boundary conditions
PLUMED: Action DISTANCE
PLUMED:   with label d37
PLUMED:   between atoms 11 16
PLUMED:   using periodic boundary conditions
PLUMED: Action DISTANCE
PLUMED:   with label d38
PLUMED:   between atoms 11 17
PLUMED:   using periodic boundary conditions
PLUMED: Action DISTANCE
PLUMED:   with label d39
PLUMED:   between atoms 11 19
PLUMED:   using periodic boundary conditions
PLUMED: Action DISTANCE
PLUMED:   with label d40
PLUMED:   between atoms 15 16
PLUMED:   using periodic boundary conditions
PLUMED: Action DISTANCE
PLUMED:   with label d41
PLUMED:   between atoms 15 17
PLUMED:   using periodic boundary conditions
PLUMED: Action DISTANCE
PLUMED:   with label d42
PLUMED:   between atoms 15 19
PLUMED:   using periodic boundary conditions
PLUMED: Action DISTANCE
PLUMED:   with label d43
PLUMED:   between atoms 16 17
PLUMED:   using periodic boundary conditions
PLUMED: Action DISTANCE
PLUMED:   with label d44
PLUMED:   between atoms 16 19
PLUMED:   using periodic boundary conditions
PLUMED: Action DISTANCE
PLUMED:   with label d45
PLUMED:   between atoms 17 19
PLUMED:   using periodic boundary conditions
PLUMED: Action ENDPLUMED
PLUMED:   with label @49
PLUMED: END FILE: plumed_descriptors.data
PLUMED: Action CUSTOM
PLUMED:   with label tica_cv1_0
PLUMED:   with arguments d1 d2 d3 d4 d5 d6 d7 d8 d9 d10 d11 d12 d13 d14 d15 d16 d17 d18 d19 d20 d21 d22 d23 d24 d25 d26 d27 d28 d29 d30 d31 d32 d33 d34 d35 d36 d37 d38 d39 d40 d41 d42 d43 d44 d45
PLUMED:   with function : 0.016066*(x0-0.151303)-0.005441*(x1-0.237414)-0.051850*(x2-0.242311)+0.075242*(x3-0.381739)+0.006608*(x4-0.469487)-0.142642*(x5-0.466566)+0.081560*(x6-0.521178)-0.013432*(x7-0.516282)+0.036760*(x8-0.631202)+0.021838*(x9-0.122466)+0.094042*(x10-0.133287)-0.177121*(x11-0.247821)-0.008380*(x12-0.352864)+0.661922*(x13-0.342313)-0.405311*(x14-0.416681)-0.193337*(x15-0.389594)+0.021010*(x16-0.517545)-0.044480*(x17-0.224851)+0.048284*(x18-0.284451)+0.005439*(x19-0.396600)-0.172912*(x20-0.369447)+0.130918*(x21-0.460614)+0.031123*(x22-0.386386)-0.008846*(x23-0.511414)+0.045721*(x24-0.146728)-0.000876*(x25-0.243902)-0.320424*(x26-0.250087)+0.198014*(x27-0.313942)+0.193902*(x28-0.330868)-0.086804*(x29-0.462989)-0.027068*(x30-0.153887)-0.090834*(x31-0.154730)+0.038532*(x32-0.241734)+0.024493*(x33-0.246382)+0.022310*(x34-0.385647)+0.130683*(x35-0.257069)-0.067222*(x36-0.306235)-0.063832*(x37-0.352961)+0.017675*(x38-0.481966)+0.029996*(x39-0.123092)-0.021317*(x40-0.134069)+0.029895*(x41-0.248348)-0.012733*(x42-0.225100)-0.012356*(x43-0.283808)-0.012087*(x44-0.146395)
PLUMED:   with variables : x0 x1 x2 x3 x4 x5 x6 x7 x8 x9 x10 x11 x12 x13 x14 x15 x16 x17 x18 x19 x20 x21 x22 x23 x24 x25 x26 x27 x28 x29 x30 x31 x32 x33 x34 x35 x36 x37 x38 x39 x40 x41 x42 x43 x44
PLUMED:   function as parsed by lepton: ((((((((((((((((((((((((((((((((((((((((((((0.016066*(-0.151303+(x0)))-(0.005441*(-0.237414+(x1))))-(0.05185*(-0.242311+(x2))))+(0.075242*(-0.381739+(x3))))+(0.006608*(-0.469487+(x4))))-(0.142642*(-0.466566+(x5))))+(0.08156*(-0.521178+(x6))))-(0.013432*(-0.516282+(x7))))+(0.03676*(-0.631202+(x8))))+(0.021838*(-0.122466+(x9))))+(0.094042*(-0.133287+(x10))))-(0.177121*(-0.247821+(x11))))-(0.00838*(-0.352864+(x12))))+(0.661922*(-0.342313+(x13))))-(0.405311*(-0.416681+(x14))))-(0.193337*(-0.389594+(x15))))+(0.02101*(-0.517545+(x16))))-(0.04448*(-0.224851+(x17))))+(0.048284*(-0.284451+(x18))))+(0.005439*(-0.3966+(x19))))-(0.172912*(-0.369447+(x20))))+(0.130918*(-0.460614+(x21))))+(0.031123*(-0.386386+(x22))))-(0.008846*(-0.511414+(x23))))+(0.045721*(-0.146728+(x24))))-(0.000876*(-0.243902+(x25))))-(0.320424*(-0.250087+(x26))))+(0.198014*(-0.313942+(x27))))+(0.193902*(-0.330868+(x28))))-(0.086804*(-0.462989+(x29))))-(0.027068*(-0.153887+(x30))))-(0.090834*(-0.15473+(x31))))+(0.038532*(-0.241734+(x32))))+(0.024493*(-0.246382+(x33))))+(0.02231*(-0.385647+(x34))))+(0.130683*(-0.257069+(x35))))-(0.067222*(-0.306235+(x36))))-(0.063832*(-0.352961+(x37))))+(0.017675*(-0.481966+(x38))))+(0.029996*(-0.123092+(x39))))-(0.021317*(-0.134069+(x40))))+(0.029895*(-0.248348+(x41))))-(0.012733*(-0.2251+(x42))))-(0.012356*(-0.283808+(x43))))-(0.012087*(-0.146395+(x44)))
PLUMED:   derivatives as computed by lepton:
PLUMED:     0.016066
PLUMED:     -0.005441
PLUMED:     -0.05185
PLUMED:     0.075242
PLUMED:     0.006608
PLUMED:     -0.142642
PLUMED:     0.08156
PLUMED:     -0.013432
PLUMED:     0.03676
PLUMED:     0.021838
PLUMED:     0.094042
PLUMED:     -0.177121
PLUMED:     -0.00838
PLUMED:     0.661922
PLUMED:     -0.405311
PLUMED:     -0.193337
PLUMED:     0.02101
PLUMED:     -0.04448
PLUMED:     0.048284
PLUMED:     0.005439
PLUMED:     -0.172912
PLUMED:     0.130918
PLUMED:     0.031123
PLUMED:     -0.008846
PLUMED:     0.045721
PLUMED:     -0.000876
PLUMED:     -0.320424
PLUMED:     0.198014
PLUMED:     0.193902
PLUMED:     -0.086804
PLUMED:     -0.027068
PLUMED:     -0.090834
PLUMED:     0.038532
PLUMED:     0.024493
PLUMED:     0.02231
PLUMED:     0.130683
PLUMED:     -0.067222
PLUMED:     -0.063832
PLUMED:     0.017675
PLUMED:     0.029996
PLUMED:     -0.021317
PLUMED:     0.029895
PLUMED:     -0.012733
PLUMED:     -0.012356
PLUMED:     -0.012087
PLUMED: Action CUSTOM
PLUMED:   with label tica_cv2_0
PLUMED:   with arguments d1 d2 d3 d4 d5 d6 d7 d8 d9 d10 d11 d12 d13 d14 d15 d16 d17 d18 d19 d20 d21 d22 d23 d24 d25 d26 d27 d28 d29 d30 d31 d32 d33 d34 d35 d36 d37 d38 d39 d40 d41 d42 d43 d44 d45
PLUMED:   with function : 0.007373*(x0-0.151303)-0.012334*(x1-0.237414)-0.016766*(x2-0.242311)-0.036073*(x3-0.381739)+0.005536*(x4-0.469487)-0.146886*(x5-0.466566)+0.089908*(x6-0.521178)+0.322231*(x7-0.516282)-0.219959*(x8-0.631202)+0.042554*(x9-0.122466)+0.046487*(x10-0.133287)+0.075397*(x11-0.247821)+0.001831*(x12-0.352864)+0.144618*(x13-0.342313)-0.129801*(x14-0.416681)-0.628309*(x15-0.389594)+0.520246*(x16-0.517545)-0.040743*(x17-0.224851)-0.034063*(x18-0.284451)-0.000442*(x19-0.396600)-0.028991*(x20-0.369447)+0.034069*(x21-0.460614)+0.203259*(x22-0.386386)-0.173131*(x23-0.511414)-0.019495*(x24-0.146728)-0.004559*(x25-0.243902)+0.043181*(x26-0.250087)-0.007766*(x27-0.313942)+0.092249*(x28-0.330868)-0.108202*(x29-0.462989)-0.003079*(x30-0.153887)+0.001668*(x31-0.154730)+0.006433*(x32-0.241734)+0.017925*(x33-0.246382)-0.029772*(x34-0.385647)-0.008739*(x35-0.257069)+0.000583*(x36-0.306235)+0.010060*(x37-0.352961)+0.001605*(x38-0.481966)+0.033707*(x39-0.123092)+0.035490*(x40-0.134069)-0.011811*(x41-0.248348)-0.027276*(x42-0.225100)+0.009039*(x43-0.283808)-0.000753*(x44-0.146395)
PLUMED:   with variables : x0 x1 x2 x3 x4 x5 x6 x7 x8 x9 x10 x11 x12 x13 x14 x15 x16 x17 x18 x19 x20 x21 x22 x23 x24 x25 x26 x27 x28 x29 x30 x31 x32 x33 x34 x35 x36 x37 x38 x39 x40 x41 x42 x43 x44
PLUMED:   function as parsed by lepton: ((((((((((((((((((((((((((((((((((((((((((((0.007373*(-0.151303+(x0)))-(0.012334*(-0.237414+(x1))))-(0.016766*(-0.242311+(x2))))-(0.036073*(-0.381739+(x3))))+(0.005536*(-0.469487+(x4))))-(0.146886*(-0.466566+(x5))))+(0.089908*(-0.521178+(x6))))+(0.322231*(-0.516282+(x7))))-(0.219959*(-0.631202+(x8))))+(0.042554*(-0.122466+(x9))))+(0.046487*(-0.133287+(x10))))+(0.075397*(-0.247821+(x11))))+(0.001831*(-0.352864+(x12))))+(0.144618*(-0.342313+(x13))))-(0.129801*(-0.416681+(x14))))-(0.628309*(-0.389594+(x15))))+(0.520246*(-0.517545+(x16))))-(0.040743*(-0.224851+(x17))))-(0.034063*(-0.284451+(x18))))-(0.000442*(-0.3966+(x19))))-(0.028991*(-0.369447+(x20))))+(0.034069*(-0.460614+(x21))))+(0.203259*(-0.386386+(x22))))-(0.173131*(-0.511414+(x23))))-(0.019495*(-0.146728+(x24))))-(0.004559*(-0.243902+(x25))))+(0.043181*(-0.250087+(x26))))-(0.007766*(-0.313942+(x27))))+(0.092249*(-0.330868+(x28))))-(0.108202*(-0.462989+(x29))))-(0.003079*(-0.153887+(x30))))+(0.001668*(-0.15473+(x31))))+(0.006433*(-0.241734+(x32))))+(0.017925*(-0.246382+(x33))))-(0.029772*(-0.385647+(x34))))-(0.008739*(-0.257069+(x35))))+(0.000583*(-0.306235+(x36))))+(0.01006*(-0.352961+(x37))))+(0.001605*(-0.481966+(x38))))+(0.033707*(-0.123092+(x39))))+(0.03549*(-0.134069+(x40))))-(0.011811*(-0.248348+(x41))))-(0.027276*(-0.2251+(x42))))+(0.009039*(-0.283808+(x43))))-(0.000753*(-0.146395+(x44)))
PLUMED:   derivatives as computed by lepton:
PLUMED:     0.007373
PLUMED:     -0.012334
PLUMED:     -0.016766
PLUMED:     -0.036073
PLUMED:     0.005536
PLUMED:     -0.146886
PLUMED:     0.089908
PLUMED:     0.322231
PLUMED:     -0.219959
PLUMED:     0.042554
PLUMED:     0.046487
PLUMED:     0.075397
PLUMED:     0.001831
PLUMED:     0.144618
PLUMED:     -0.129801
PLUMED:     -0.628309
PLUMED:     0.520246
PLUMED:     -0.040743
PLUMED:     -0.034063
PLUMED:     -0.000442
PLUMED:     -0.028991
PLUMED:     0.034069
PLUMED:     0.203259
PLUMED:     -0.173131
PLUMED:     -0.019495
PLUMED:     -0.004559
PLUMED:     0.043181
PLUMED:     -0.007766
PLUMED:     0.092249
PLUMED:     -0.108202
PLUMED:     -0.003079
PLUMED:     0.001668
PLUMED:     0.006433
PLUMED:     0.017925
PLUMED:     -0.029772
PLUMED:     -0.008739
PLUMED:     0.000583
PLUMED:     0.01006
PLUMED:     0.001605
PLUMED:     0.033707
PLUMED:     0.03549
PLUMED:     -0.011811
PLUMED:     -0.027276
PLUMED:     0.009039
PLUMED:     -0.000753
PLUMED: Action OPES_METAD
PLUMED:   with label opes
PLUMED:   with arguments tica_cv1_0
PLUMED:   added component to this action:  opes.bias
PLUMED:   added component to this action:  opes.rct
PLUMED:   added component to this action:  opes.zed
PLUMED:   added component to this action:  opes.neff
PLUMED:   added component to this action:  opes.nker
PLUMED:   temperature = 300
PLUMED:   beta = 0.400908
PLUMED:   depositing new kernels with PACE = 500
PLUMED:   expected BARRIER is 40
PLUMED:   using target distribution with BIASFACTOR gamma = 5
PLUMED:   adaptive SIGMA will be used, with ADAPTIVE_SIGMA_STRIDE = 5000
PLUMED:     thus the first x kernel depositions will be skipped, x = ADAPTIVE_SIGMA_STRIDE/PACE = 10
PLUMED:   kernels are truncated with KERNELS_CUTOFF = 6.33173
PLUMED:   the value at cutoff is = 1.96968e-09
PLUMED:   regularization EPSILON = 1.96968e-09
PLUMED:   kernels will be compressed when closer than COMPRESSION_THRESHOLD = 1
PLUMED:   state checkpoints are written on file RestartKernels every 5000 MD steps
PLUMED:   using multiple OpenMP threads per simulation: 2
PLUMED:   Bibliography: [5][6]
PLUMED: Action PRINT
PLUMED:   with label @54
PLUMED:   with stride 100
PLUMED:   with arguments phi psi ene d1 d2 d3 d4 d5 d6 d7 d8 d9 d10 d11 d12 d13 d14 d15 d16 d17 d18 d19 d20 d21 d22 d23 d24 d25 d26 d27 d28 d29 d30 d31 d32 d33 d34 d35 d36 d37 d38 d39 d40 d41 d42 d43 d44 d45 tica_cv1_0 tica_cv2_0 opes.bias opes.rct opes.zed opes.neff opes.nker
PLUMED:   on file COLVAR
PLUMED:   with format  %g
PLUMED: Action ENDPLUMED
PLUMED:   with label @55
PLUMED: END FILE: plumed.dat
PLUMED: Timestep: 0.002000
PLUMED: KbT: 2.494339
PLUMED: Relevant bibliography:
PLUMED:   [1] The PLUMED consortium, Nat. Methods 16, 670 (2019)
PLUMED:   [2] Tribello, Bonomi, Branduardi, Camilloni, and Bussi, Comput. Phys. Commun. 185, 604 (2014)
PLUMED:   [3] Bartels and Karplus, J. Phys. Chem. B 102, 865 (1998)
PLUMED:   [4] Bonomi and Parrinello, J. Comp. Chem. 30, 1615 (2009)
PLUMED:   [5] M. Invernizzi and M. Parrinello, J. Phys. Chem. Lett. 11, 2731-2736 (2020)
PLUMED:   [6] M. Invernizzi and M. Parrinello, preprint arXiv:2201.09950 (2022)
PLUMED: Please read and cite where appropriate!
PLUMED: Finished setup
Started mdrun on rank 0 Thu Jun 23 16:02:30 2022

           Step           Time
              0        0.00000

   Energies (kJ/mol)
           Bond          Angle    Proper Dih.  Improper Dih.          LJ-14
    8.94525e+00    3.19694e+01    4.09897e+01    2.03912e+00    1.39291e+01
     Coulomb-14        LJ (SR)   Coulomb (SR)      Potential    Kinetic En.
    2.03974e+02   -6.24912e+00   -3.37056e+02   -4.14583e+01    6.57986e+01
    2.43403e+01    2.43403e+01    3.10343e+02    5.70136e+01    4.48027e-07

	<====  A V E R A G E S  ====>

	Statistics over 1000001 steps using 10001 frames

   Energies (kJ/mol)
           Bond          Angle    Proper Dih.  Improper Dih.          LJ-14
    1.33216e+01    3.72312e+01    4.80071e+01    2.95396e+00    1.38860e+01
     Coulomb-14        LJ (SR)   Coulomb (SR)      Potential    Kinetic En.
    1.93972e+02   -4.17368e+00   -3.31506e+02   -2.63083e+01    6.39177e+01
   Total Energy  Conserved En.    Temperature Pressure (bar)   Constr. rmsd
    3.76094e+01    5.07418e+02    3.01472e+02   -7.01427e-01    0.00000e+00

   Total Virial (kJ/mol)
    2.19769e+01    8.44705e-01   -6.08916e-02
    8.44707e-01    2.14771e+01    1.86089e-02
   -6.08880e-02    1.86100e-02    2.22147e+01

   Pressure (bar)
   -4.63274e-01   -8.97773e-01    9.98802e-02
   -8.97776e-01   -9.66295e-01   -6.04385e-02
    9.98759e-02   -6.04399e-02   -6.74713e-01
